<?xml version="1.0" encoding="UTF-8"?>

<!-- generated on 2022-11-21 14:21:50 by Eclipse SUMO GUI Version v1_15_0+0471-c3363483131
-->

<configuration xmlns:xsi="http://www.w3.org/2001/XMLSchema-instance" xsi:noNamespaceSchemaLocation="http://sumo.dlr.de/xsd/sumoConfiguration.xsd">

    <input>
        <net-file value="merging.net.xml"/>
        <route-files value="merging.rou.xml"/>
    </input>

</configuration>
