<?xml version="1.0" encoding="UTF-8"?>

<!-- generated on 2022-12-11 17:13:52 by Eclipse SUMO netedit Version v1_15_0+0471-c3363483131
<configuration xmlns:xsi="http://www.w3.org/2001/XMLSchema-instance" xsi:noNamespaceSchemaLocation="http://sumo.dlr.de/xsd/netconvertConfiguration.xsd">

    <input>
        <sumo-net-file value="/home/parallels/Documents/sumo/merging/merging.net.xml"/>
    </input>

    <output>
        <output-file value="/home/parallels/Documents/sumo/merging/merging.net.xml"/>
    </output>

    <processing>
        <geometry.min-radius.fix.railways value="false"/>
        <geometry.max-grade.fix value="false"/>
        <offset.disable-normalization value="true"/>
        <lefthand value="0"/>
    </processing>

    <junctions>
        <no-turnarounds value="true"/>
        <junctions.corner-detail value="5"/>
        <junctions.limit-turn-speed value="5.50"/>
        <rectangular-lane-cut value="0"/>
    </junctions>

    <pedestrian>
        <walkingareas value="0"/>
    </pedestrian>

</configuration>
-->

<net version="1.9" junctionCornerDetail="5" limitTurnSpeed="5.50" xmlns:xsi="http://www.w3.org/2001/XMLSchema-instance" xsi:noNamespaceSchemaLocation="http://sumo.dlr.de/xsd/net_file.xsd">

    <location netOffset="0.00,0.00" convBoundary="0.00,-110.42,500.00,0.00" origBoundary="-10000000000.00,-10000000000.00,10000000000.00,10000000000.00" projParameter="!"/>

    <edge id=":J2_0" function="internal">
        <lane id=":J2_0_0" index="0" speed="25.00" length="10.80" shape="237.04,-5.28 239.82,-3.83 241.87,-2.67 244.00,-1.89 247.03,-1.60"/>
    </edge>
    <edge id=":J2_1" function="internal">
        <lane id=":J2_1_0" index="0" speed="25.00" length="10.78" shape="236.25,-1.60 247.03,-1.60"/>
    </edge>

    <edge id="E0" from="J0" to="J2" priority="-1">
        <lane id="E0_0" index="0" speed="25.00" length="236.25" shape="0.00,-1.60 236.25,-1.60"/>
    </edge>
    <edge id="E0.244" from="J2" to="J1" priority="-1">
        <lane id="E0.244_0" index="0" speed="25.00" length="252.97" shape="247.03,-1.60 500.00,-1.60"/>
    </edge>
    <edge id="E1" from="J3" to="J2" priority="-1">
        <lane id="E1_0" index="0" speed="25.00" length="259.22" shape="0.76,-111.88 237.04,-5.28"/>
    </edge>

    <junction id="J0" type="dead_end" x="0.00" y="0.00" incLanes="" intLanes="" shape="0.00,0.00 0.00,-3.20"/>
    <junction id="J1" type="dead_end" x="500.00" y="0.00" incLanes="E0.244_0" intLanes="" shape="500.00,-3.20 500.00,0.00"/>
    <junction id="J2" type="priority" x="244.84" y="0.00" incLanes="E1_0 E0_0" intLanes=":J2_0_0 :J2_1_0" shape="247.03,0.00 247.03,-3.20 244.92,-3.32 243.40,-3.66 242.20,-4.20 239.62,-5.76 237.70,-6.73 236.38,-3.82 236.25,-3.20 236.25,0.00">
        <request index="0" response="00" foes="10" cont="0"/>
        <request index="1" response="01" foes="01" cont="0"/>
    </junction>
    <junction id="J3" type="dead_end" x="0.10" y="-110.42" incLanes="" intLanes="" shape="0.10,-110.42 1.42,-113.34"/>

    <connection from="E0" to="E0.244" fromLane="0" toLane="0" via=":J2_1_0" dir="s" state="m"/>
    <connection from="E1" to="E0.244" fromLane="0" toLane="0" via=":J2_0_0" dir="s" state="M"/>

    <connection from=":J2_0" to="E0.244" fromLane="0" toLane="0" dir="s" state="M"/>
    <connection from=":J2_1" to="E0.244" fromLane="0" toLane="0" dir="s" state="M"/>

</net>
