<?xml version="1.0" encoding="UTF-8"?>

<!-- generated on 2022-11-22 17:35:11 by Eclipse SUMO netedit Version v1_15_0+0471-c3363483131
-->

<routes xmlns:xsi="http://www.w3.org/2001/XMLSchema-instance" xsi:noNamespaceSchemaLocation="http://sumo.dlr.de/xsd/routes_file.xsd">
    <!-- Routes -->
    <route id="r_0" edges="E0 E0.244"/>
    <route id="r_1" edges="E1 E0.244"/>
    <vType id="type1" accel="5" decel="6.5" sigma="0" length="5" maxSpeed="30"/>
    <vType id="type2" accel="5" decel="6.5" sigma="0" length="5" maxSpeed="24"/>
    <!-- Vehicles, persons and containers (sorted by depart) -->
    
    <vehicle id="v_1" type="type1" depart="0.00" route="r_0" color = "red"/>
    <vehicle id="v_0" type="type2" depart="0.00" route="r_1" color = "yellow"/>
    <vehicle id="v_2" type="type1" depart="4.00" route="r_0" color = "red"/>
    <vehicle id="v_3" type="type1" depart="7.00" route="r_0" color = "red"/>
    <vehicle id="v_4" type="type1" depart="10.00" route="r_0" color = "red"/>
    <vehicle id="v_5" type="type1" depart="13.00" route="r_0" color = "red"/>
</routes>
